Circuit: * Z:\home\roby\Elettronica\preampino\schematics\simulations\bazzfuss.asc

WARNING: Node N005 is floating.

WARNING: Less than two connections to node N005.  This node is used by C1.
Direct Newton iteration for .op point succeeded.

Date: Mon May 09 23:47:31 2016
Total elapsed time: 0.047 seconds.

tnom = 27
temp = 27
method = trap
totiter = 14
traniter = 0
tranpoints = 0
accept = 0
rejected = 0
matrix size = 12
fillins = 4
solver = Normal
Matrix Compiler1:      47 opcodes
Matrix Compiler2: 988 bytes object code size

