Circuit: * Z:\home\roby\Elettronica\preampino\schematics\simulations\bazzfuss.asc

WARNING: Node N005 is floating.

WARNING: Less than two connections to node N005.  This node is used by C1.
Direct Newton iteration for .op point succeeded.

Date: Sun May 08 22:46:22 2016
Total elapsed time: 0.069 seconds.

tnom = 27
temp = 27
method = modified trap
totiter = 2516
traniter = 2502
tranpoints = 1139
accept = 1106
rejected = 33
matrix size = 12
fillins = 4
solver = Normal
Matrix Compiler1: 882 bytes object code size  0.7/0.3/[0.3]
Matrix Compiler2: off  [0.3]/0.4/0.4


